LTspice 24.1.9 for Windows
Circuit: E:\LTSpice Projects\CMOS Inverter\CMOS.net
Start Time: Wed Mar 18 22:29:18 2026
solver = Normal
Maximum thread count: 8
tnom = 27
temp = 27
method = trap
Direct Newton iteration for .op point succeeded.
Total elapsed time: 0.203 seconds.

Files loaded:
E:\LTSpice Projects\CMOS Inverter\CMOS.net
C:\Users\Dell\AppData\Local\LTspice\lib\cmp\standard.mos

avg_power: AVG(-V(Vdd)*I(V2))=2.09376141598e-05 FROM 0 TO 1e-07
tphl=-8.24914076996e-12 FROM 4.99999978508e-10 TO 4.91750837738e-10
tplh=-1.7761063173e-11 FROM 6.49999997662e-09 TO 6.48223891345e-09
trise=3.21780905028e-10 FROM 6.33951051004e-09 TO 6.66129141507e-09
tfall=3.20338695092e-10 FROM 3.41194771059e-10 TO 6.61533466152e-10
